Circuit: * C:\Users\msaya\Desktop\LTSpice\Switch\Switch.asc

Warning: Multiple definitions of model "2scr375p" Type: BJT
Warning: Multiple definitions of model "bc857b" Type: BJT
Warning: Multiple definitions of model "bc847c" Type: BJT
Warning: Multiple definitions of model "bc847b" Type: BJT
Limiting rise time of source v2 to 5e-08
Limiting fall time of source v2 to 5e-08
Direct Newton iteration for .op point succeeded.

Date: Mon Nov 13 19:54:57 2023
Total elapsed time: 0.154 seconds.

tnom = 27
temp = 27
method = modified trap
totiter = 4946
traniter = 4919
tranpoints = 1836
accept = 1581
rejected = 255
matrix size = 45
fillins = 10
solver = Normal
Avg thread counts: 1.1/1.4/1.3/1.1
Matrix Compiler1: 2.98 KB object code size  1.2/0.9/[0.4]
Matrix Compiler2: 3.72 KB object code size  0.8/1.3/[0.5]

