Circuit: * C:\Users\msaya\Desktop\LTSpice\Simulations\OVK\nicht_inv\nicht_inv.asc

Warning: Multiple definitions of model "2scr375p" Type: BJT
Warning: Multiple definitions of model "bc857b" Type: BJT
Warning: Multiple definitions of model "bc847c" Type: BJT
Warning: Multiple definitions of model "bc847b" Type: BJT
WARNING: Less than two connections to node vd.  This node is used by v5.
WARNING: Less than two connections to node bias1.  This node is used by r15.
WARNING: Less than two connections to node bias2.  This node is used by r18.
Direct Newton iteration failed to find .op point.  (Use ".option noopiter" to skip.)
Starting Gmin stepping
Gmin = 10
Gmin = 1.07374
Gmin = 0.115292
Gmin = 0.0123794
Gmin = 0.00132923
Gmin = 0.000142725
vernier = 0.5
vernier = 0.25
Gmin = 6.09232e-05
vernier = 0.333333
vernier = 0.444444
Gmin = 2.70419e-05
vernier = 0.592592
Gmin = 7.74497e-06
vernier = 0.790123
vernier = 1
Gmin = 1.07562e-06
Gmin = 1.15494e-07
Gmin = 1.24011e-08
Gmin = 1.33156e-09
Gmin = 1.42975e-10
Gmin = 1.53518e-11
Gmin = 1.64839e-12
Gmin = 1.76994e-13
Gmin = 0
Gmin stepping succeeded in finding the operating point.


Date: Mon Jan 22 19:46:52 2024
Total elapsed time: 0.162 seconds.

tnom = 27
temp = 27
method = modified trap
totiter = 5775
traniter = 4961
tranpoints = 1958
accept = 1530
rejected = 428
matrix size = 63
fillins = 32
solver = Normal
Avg thread counts: 1.1/1.3/1.3/1.1
Matrix Compiler1: 6.28 KB object code size  1.2/0.5/[0.4]
Matrix Compiler2: 5.73 KB object code size  0.5/0.6/[0.4]

