Circuit: * C:\Users\msaya\Desktop\LTSpice\Simulations\OVK\nicht_inv\nicht_inv.asc

Warning: Multiple definitions of model "2scr375p" Type: BJT
Warning: Multiple definitions of model "bc857b" Type: BJT
Warning: Multiple definitions of model "bc847c" Type: BJT
Warning: Multiple definitions of model "bc847b" Type: BJT
WARNING: Node NC_01 is floating.

WARNING: Less than two connections to node vd.  This node is used by v5.
WARNING: Less than two connections to node bias1.  This node is used by r15.
WARNING: Less than two connections to node bias2.  This node is used by r18.
Direct Newton iteration failed to find .op point.  (Use ".option noopiter" to skip.)
Starting Gmin stepping
Gmin = 10
Gmin = 1.07374
Gmin = 0.115292
Gmin = 0.0123794
Gmin = 0.00132923
Gmin = 0.000142725
Gmin = 1.5325e-05
vernier = 0.5
vernier = 0.25
vernier = 0.125
vernier = 0.0625
Gmin = 5.02168e-06
vernier = 0.03125
vernier = 0.015625
vernier = 0.0078125
vernier = 0.0104167
Gmin = 4.94713e-06
vernier = 0.0138889
Gmin = 4.79516e-06
vernier = 0.0185185
vernier = 0.0246913
Gmin = 4.55068e-06
vernier = 0.0329218
vernier = 0.0438957
Gmin = 4.1869e-06
vernier = 0.0585276
Gmin = 3.67352e-06
vernier = 0.0780367
vernier = 0.104049
Gmin = 2.95206e-06
vernier = 0.138732
vernier = 0.184976
Gmin = 2.0879e-06
vernier = 0.246634
Gmin = 1.21694e-06
vernier = 0.328846
vernier = 0.438461
Gmin = 4.99697e-07
vernier = 0.584614
vernier = 0.779486
Gmin = 1.2539e-07
vernier = 1
Gmin = 1.61257e-08
Gmin = 1.73148e-09
Gmin = 1.85916e-10
Gmin = 1.99626e-11
Gmin = 2.14347e-12
Gmin = 2.30153e-13
Gmin = 0
Gmin stepping succeeded in finding the operating point.


Date: Tue Jan  9 14:15:05 2024
Total elapsed time: 0.241 seconds.

tnom = 27
temp = 27
method = modified trap
totiter = 5777
traniter = 4360
tranpoints = 1701
accept = 1463
rejected = 238
matrix size = 58
fillins = 26
solver = Normal
Avg thread counts: 1.1/1.4/1.3/1.1
Matrix Compiler1: 5.62 KB object code size  1.4/0.9/[0.8]
Matrix Compiler2: 5.20 KB object code size  0.8/0.7/[0.5]

