Circuit: * C:\Users\msaya\Desktop\LTSpice\Simulations\Switch\Switch.asc

Warning: Multiple definitions of model "2scr375p" Type: BJT
Warning: Multiple definitions of model "bc857b" Type: BJT
Warning: Multiple definitions of model "bc847c" Type: BJT
Warning: Multiple definitions of model "bc847b" Type: BJT
v3: both pins shorted together -- ignoring.
Direct Newton iteration for .op point succeeded.

Date: Wed Jan 10 13:11:27 2024
Total elapsed time: 0.098 seconds.

tnom = 27
temp = 27
method = modified trap
totiter = 4550
traniter = 4533
tranpoints = 1943
accept = 1702
rejected = 241
matrix size = 44
fillins = 23
solver = Normal
Avg thread counts: 1.1/1.3/1.3/1.1
Matrix Compiler1:     208 opcodes  0.8/[0.5]/0.6
Matrix Compiler2: 3.96 KB object code size  0.3/0.6/[0.3]

