Circuit: * C:\Users\msaya\Desktop\MA\LTSpice\Simulations\Switch\Switch1.asc

Warning: Multiple definitions of model "2scr375p" Type: BJT
Warning: Multiple definitions of model "bc857b" Type: BJT
Warning: Multiple definitions of model "bc847c" Type: BJT
Warning: Multiple definitions of model "bc847b" Type: BJT
r14: both pins shorted together -- ignoring.
r17: both pins shorted together -- ignoring.
WARNING: Less than two connections to node bias1.  This node is used by r15.
WARNING: Less than two connections to node bias2.  This node is used by r18.
WARNING: Less than two connections to node vn.  This node is used by vn.
WARNING: Less than two connections to node vd.  This node is used by vd.
Direct Newton iteration failed to find .op point.  (Use ".option noopiter" to skip.)
Starting Gmin stepping
Gmin = 10
Gmin = 1.07374
Gmin = 0.115292
Gmin = 0.0123794
Gmin = 0.00132923
Gmin = 0.000142725
Gmin = 1.5325e-05
Gmin = 1.6455e-06
Gmin = 1.76685e-07
Gmin = 1.89714e-08
Gmin = 2.03704e-09
Gmin = 2.18725e-10
Gmin = 2.34854e-11
Gmin = 2.52173e-12
Gmin = 2.70769e-13
Gmin = 0
Gmin stepping succeeded in finding the operating point.


Date: Mon Jul 29 11:12:08 2024
Total elapsed time: 0.116 seconds.

tnom = 27
temp = 27
method = modified trap
totiter = 4569
traniter = 4125
tranpoints = 1737
accept = 1528
rejected = 209
matrix size = 65
fillins = 28
solver = Normal
Avg thread counts: 1.2/1.4/1.4/1.2
Matrix Compiler1: 4.99 KB object code size  0.9/0.6/[0.5]
Matrix Compiler2: 5.33 KB object code size  0.4/0.5/[0.4]

