Circuit: * C:\Users\msaya\Desktop\LTSpice\Switch\Switch.asc

Warning: Multiple definitions of model "2scr375p" Type: BJT
Warning: Multiple definitions of model "bc857b" Type: BJT
Warning: Multiple definitions of model "bc847c" Type: BJT
Warning: Multiple definitions of model "bc847b" Type: BJT
r14: both pins shorted together -- ignoring.
r17: both pins shorted together -- ignoring.
Limiting rise time of source v2 to 5e-08
Limiting fall time of source v2 to 5e-08
WARNING: Less than two connections to node bias1.  This node is used by r15.
WARNING: Less than two connections to node bias2.  This node is used by r18.
Direct Newton iteration for .op point succeeded.

Date: Fri Jan  5 15:03:37 2024
Total elapsed time: 0.095 seconds.

tnom = 27
temp = 27
method = modified trap
totiter = 4535
traniter = 4518
tranpoints = 1772
accept = 1545
rejected = 227
matrix size = 56
fillins = 16
solver = Normal
Avg thread counts: 1.1/1.4/1.3/1.1
Matrix Compiler1: 3.72 KB object code size  0.8/0.6/[0.5]
Matrix Compiler2: 4.55 KB object code size  0.4/0.6/[0.4]

