Circuit: * C:\Users\msaya\Desktop\LTSpice\Simulations\Switch\Switch.asc

Warning: Multiple definitions of model "2scr375p" Type: BJT
Warning: Multiple definitions of model "bc857b" Type: BJT
Warning: Multiple definitions of model "bc847c" Type: BJT
Warning: Multiple definitions of model "bc847b" Type: BJT
v3: both pins shorted together -- ignoring.
Direct Newton iteration for .op point succeeded.

Date: Fri Jan 12 13:05:42 2024
Total elapsed time: 0.192 seconds.

tnom = 27
temp = 27
method = modified trap
totiter = 5172
traniter = 5151
tranpoints = 2142
accept = 1873
rejected = 269
matrix size = 49
fillins = 38
solver = Normal
Avg thread counts: 1.1/1.3/1.3/1.1
Matrix Compiler1: 4.77 KB object code size  1.1/1.1/[0.9]
Matrix Compiler2: 4.74 KB object code size  0.7/1.1/[0.5]

