Circuit: * C:\Users\msaya\Desktop\MA\LTSpice\Simulations\Switch\Switch.asc

Warning: Multiple definitions of model "2scr375p" Type: BJT
Warning: Multiple definitions of model "bc857b" Type: BJT
Warning: Multiple definitions of model "bc847c" Type: BJT
Warning: Multiple definitions of model "bc847b" Type: BJT
Direct Newton iteration failed to find .op point.  (Use ".option noopiter" to skip.)
Starting Gmin stepping
Gmin = 10
Gmin = 1.07374
Gmin = 0.115292
Gmin = 0.0123794
Gmin = 0.00132923
Gmin = 0.000142725
Gmin = 1.5325e-05
Gmin = 1.6455e-06
vernier = 0.5
vernier = 0.25
vernier = 0.125
vernier = 0.0625
vernier = 0.03125
vernier = 0.015625
Gmin = 1.30618e-06
vernier = 0.0078125
vernier = 0.00390625
vernier = 0.00195312
vernier = 0.00260417
Gmin = 1.30638e-06
vernier = 0.00347222
Gmin = 1.29622e-06
vernier = 0.00462963
vernier = 0.00231481
vernier = 0.00115741
Gmin = 1.29136e-06
vernier = 0.00154321
vernier = 0.00205761
Gmin = 1.2863e-06
vernier = 0.00274348
Gmin = 1.27839e-06
vernier = 0.00365797
vernier = 0.0048773
Gmin = 1.26521e-06
vernier = 0.00650306
vernier = 0.00867074
Gmin = 1.24449e-06
vernier = 0.011561
Gmin = 1.21258e-06
vernier = 0.0154146
vernier = 0.0205529
Gmin = 1.16087e-06
vernier = 0.0274038
vernier = 0.0365384
Gmin = 1.08304e-06
vernier = 0.0487178
Gmin = 9.71185e-07
vernier = 0.0649571
vernier = 0.0866095
Gmin = 8.09308e-07
vernier = 0.115479
vernier = 0.153972
Gmin = 6.06091e-07
vernier = 0.205296
Gmin = 3.85926e-07
vernier = 0.273728
vernier = 0.364971
Gmin = 1.82952e-07
vernier = 0.486628
vernier = 0.648837
Gmin = 5.71169e-08
vernier = 0.865116
Gmin = 9.67003e-09
vernier = 1
Gmin = 1.03831e-09
Gmin = 1.11488e-10
Gmin = 1.19709e-11
Gmin = 1.28537e-12
Gmin = 1.38015e-13
Gmin = 0
Gmin stepping succeeded in finding the operating point.

Ignoring empty pin current: Ix(u1:3)
Ignoring empty pin current: Ix(u1:6)
Ignoring empty pin current: Ix(u1:7)
Ignoring empty pin current: Ix(u1:3)
Ignoring empty pin current: Ix(u1:6)
Ignoring empty pin current: Ix(u1:7)

Date: Mon Jul 29 11:12:22 2024
Total elapsed time: 0.256 seconds.

tnom = 27
temp = 27
method = modified trap
totiter = 7935
traniter = 5153
tranpoints = 2147
accept = 1895
rejected = 252
matrix size = 62
fillins = 41
solver = Normal
Avg thread counts: 1.1/1.3/1.3/1.1
Matrix Compiler1:     373 opcodes  1.1/[0.5]/0.6
Matrix Compiler2: 6.19 KB object code size  0.4/0.6/[0.4]

