Circuit: * C:\Users\msaya\Desktop\LTSpice\Simulations\Switch\Switch1.asc

Warning: Multiple definitions of model "2scr375p" Type: BJT
Warning: Multiple definitions of model "bc857b" Type: BJT
Warning: Multiple definitions of model "bc847c" Type: BJT
Warning: Multiple definitions of model "bc847b" Type: BJT
r14: both pins shorted together -- ignoring.
r17: both pins shorted together -- ignoring.
WARNING: Less than two connections to node bias1.  This node is used by r15.
WARNING: Less than two connections to node bias2.  This node is used by r18.
WARNING: Less than two connections to node vn.  This node is used by vn.
WARNING: Less than two connections to node vd.  This node is used by vd.
Direct Newton iteration for .op point succeeded.

Date: Tue Jan  9 17:33:00 2024
Total elapsed time: 0.154 seconds.

tnom = 27
temp = 27
method = modified trap
totiter = 4074
traniter = 4049
tranpoints = 1712
accept = 1530
rejected = 182
matrix size = 60
fillins = 12
solver = Normal
Avg thread counts: 1.2/1.4/1.4/1.2
Matrix Compiler1: 3.62 KB object code size  1.2/0.8/[0.6]
Matrix Compiler2: 4.64 KB object code size  0.7/0.9/[0.5]

