Circuit: * C:\Users\msaya\Desktop\MA\LTSpice\Simulations\Switch\Switch.asc

Warning: Multiple definitions of model "2scr375p" Type: BJT
Warning: Multiple definitions of model "bc857b" Type: BJT
Warning: Multiple definitions of model "bc847c" Type: BJT
Warning: Multiple definitions of model "bc847b" Type: BJT
Direct Newton iteration failed to find .op point.  (Use ".option noopiter" to skip.)
Starting Gmin stepping
Gmin = 10
Gmin = 1.07374
Gmin = 0.115292
Gmin = 0.0123794
Gmin = 0.00132923
Gmin = 0.000142725
Gmin = 1.5325e-05
vernier = 0.5
vernier = 0.25
Gmin = 6.17815e-06
vernier = 0.333333
vernier = 0.166667
vernier = 0.0833333
vernier = 0.0416667
Gmin = 4.05122e-06
vernier = 0.0555555
Gmin = 3.59031e-06
vernier = 0.074074
vernier = 0.0987653
vernier = 0.0493827
Gmin = 3.13328e-06
vernier = 0.0658435
Gmin = 2.70483e-06
vernier = 0.0877914
vernier = 0.117055
Gmin = 2.11573e-06
vernier = 0.156073
vernier = 0.0780367
vernier = 0.0390184
vernier = 0.0195092
Gmin = 1.84097e-06
vernier = 0.0260122
Gmin = 1.73662e-06
vernier = 0.034683
vernier = 0.046244
Gmin = 1.57485e-06
vernier = 0.0616586
vernier = 0.0822114
Gmin = 1.34811e-06
vernier = 0.109615
Gmin = 1.05666e-06
vernier = 0.146154
vernier = 0.194871
Gmin = 7.04349e-07
vernier = 0.259828
vernier = 0.346438
Gmin = 3.71819e-07
vernier = 0.461917
Gmin = 1.38442e-07
vernier = 0.615889
vernier = 0.821185
Gmin = 2.77792e-08
vernier = 1
Gmin = 3.20813e-09
Gmin = 3.44471e-10
Gmin = 3.69873e-11
Gmin = 3.97148e-12
Gmin = 4.26434e-13
Gmin = 0
Gmin stepping succeeded in finding the operating point.

Ignoring empty pin current: Ix(u1:3)
Ignoring empty pin current: Ix(u1:6)
Ignoring empty pin current: Ix(u1:7)
Ignoring empty pin current: Ix(u1:3)
Ignoring empty pin current: Ix(u1:6)
Ignoring empty pin current: Ix(u1:7)

Date: Thu Aug 29 21:56:10 2024
Total elapsed time: 0.276 seconds.

tnom = 27
temp = 27
method = modified trap
totiter = 7273
traniter = 5126
tranpoints = 2160
accept = 1896
rejected = 264
matrix size = 71
fillins = 65
solver = Normal
Avg thread counts: 1.1/3.1/1.3/1.1
Matrix Compiler1: 9.62 KB object code size  1.9/1.2/[0.8]
Matrix Compiler2: 7.58 KB object code size  0.5/0.7/[0.3]

