Circuit: * C:\Users\msaya\Desktop\LTSpice\Simulations\Switch\Switch.asc

Warning: Multiple definitions of model "2scr375p" Type: BJT
Warning: Multiple definitions of model "bc857b" Type: BJT
Warning: Multiple definitions of model "bc847c" Type: BJT
Warning: Multiple definitions of model "bc847b" Type: BJT
v3: both pins shorted together -- ignoring.
Direct Newton iteration for .op point succeeded.

Date: Thu Jan 18 14:26:01 2024
Total elapsed time: 0.131 seconds.

tnom = 27
temp = 27
method = modified trap
totiter = 5535
traniter = 5511
tranpoints = 2162
accept = 1901
rejected = 261
matrix size = 51
fillins = 31
solver = Normal
Avg thread counts: 1.1/1.3/1.3/1.1
Matrix Compiler1: 4.24 KB object code size  0.7/0.4/[0.3]
Matrix Compiler2: off  [0.3]/0.5/0.4

