Circuit: * C:\Users\msaya\Desktop\LTSpice\OVtest\OVtest.asc

WARNING: Less than two connections to node vd.  This node is used by v5.
Direct Newton iteration failed to find .op point.  (Use ".option noopiter" to skip.)
Starting Gmin stepping
Gmin = 10
Gmin = 1.07374
Gmin = 0.115292
Gmin = 0.0123794
Gmin = 0.00132923
Gmin = 0.000142725
Gmin = 1.5325e-05
Gmin = 1.6455e-06
Gmin = 1.76685e-07
Gmin = 1.89714e-08
Gmin = 2.03704e-09
Gmin = 2.18725e-10
Gmin = 2.34854e-11
Gmin = 2.52173e-12
Gmin = 2.70769e-13
Gmin = 0
Gmin stepping succeeded in finding the operating point.


Date: Fri Jan  5 13:01:27 2024
Total elapsed time: 0.093 seconds.

tnom = 27
temp = 27
method = modified trap
totiter = 3368
traniter = 2922
tranpoints = 1290
accept = 1193
rejected = 97
matrix size = 22
fillins = 10
solver = Normal
Avg thread counts: 1.2/1.5/1.5/1.2
Matrix Compiler1: 2.77 KB object code size  0.5/0.2/[0.2]
Matrix Compiler2: off  [0.2]/0.2/0.2

