Circuit: * C:\Users\msaya\Documents\Github\Amplifier\Draft1.asc

.OP point found by inspection.

Date: Wed Sep 20 14:57:16 2023
Total elapsed time: 0.039 seconds.

tnom = 27
temp = 27
method = modified trap
totiter = 2168
traniter = 2168
tranpoints = 1049
accept = 1049
rejected = 0
matrix size = 2
fillins = 0
solver = Normal
Avg thread counts: 1.3/1.6/1.6/1.3
Matrix Compiler1:       2 opcodes  0.0/[0.0]/0.1
Matrix Compiler2: 96 bytes object code size  0.0/0.1/[0.0]

