Circuit: * C:\Users\msaya\Documents\Github\Amplifier\pulse Amplifier.asc

Fatal Error: Unknown SPICE device type "N" in "n§q1 vsup n011 vsup bd139"
