Circuit: * C:\Users\msaya\Documents\Github\Amplifier\pulse Amplifier.asc

Warning: Multiple definitions of model "2scr375p" Type: BJT
Warning: Multiple definitions of model "bc857b" Type: BJT
Warning: Multiple definitions of model "bc847c" Type: BJT
Warning: Multiple definitions of model "bc847b" Type: BJT
WARNING: Node N012 is floating.

.OP point found by inspection.

Date: Thu Jun 15 09:21:01 2023
Total elapsed time: 0.189 seconds.

tnom = 27
temp = 27
method = trap
totiter = 4124
traniter = 0
tranpoints = 0
accept = 0
rejected = 0
matrix size = 46
fillins = 32
solver = Normal
Avg thread counts: 1.2/0.0/1.3/1.2
Matrix Compiler1: 5.51 KB object code size  3.1/2.1/[1.3]
Matrix Compiler2: 4.72 KB object code size  1.2/1.9/[0.8]

