Circuit: * C:\Users\msaya\Documents\Github\Amplifier\pulse Amplifier.asc

Warning: Multiple definitions of model "2scr375p" Type: BJT
Warning: Multiple definitions of model "bc857b" Type: BJT
Warning: Multiple definitions of model "bc847c" Type: BJT
Warning: Multiple definitions of model "bc847b" Type: BJT
c42: both pins shorted together -- ignoring.
r29: both pins shorted together -- ignoring.
r34: both pins shorted together -- ignoring.
r40: both pins shorted together -- ignoring.
r43: both pins shorted together -- ignoring.
r30: both pins shorted together -- ignoring.
r37: both pins shorted together -- ignoring.
r41: both pins shorted together -- ignoring.
r44: both pins shorted together -- ignoring.
d9.2: both pins shorted together -- ignoring.
c142: Increased Cpar to 6e-11
c21: Increased Cpar to 6e-11
c22: Increased Cpar to 6e-11
WARNING: Node N016 is floating.
WARNING: Node N032 is floating.
WARNING: Node N033 is floating.

.OP point found by inspection.

Date: Thu Jun 15 11:26:35 2023
Total elapsed time: 0.176 seconds.

tnom = 27
temp = 27
method = trap
totiter = 4129
traniter = 0
tranpoints = 0
accept = 0
rejected = 0
matrix size = 104
fillins = 98
solver = Normal
Avg thread counts: 1.2/0.0/1.3/1.2
Matrix Compiler1: 13.98 KB object code size  3.8/2.2/[1.5]
Matrix Compiler2: 10.79 KB object code size  1.3/1.6/[0.9]

