Circuit: * C:\Users\msaya\Documents\Github\Amplifier\pulse Amplifier.asc

Warning: Multiple definitions of model "2scr375p" Type: BJT
Warning: Multiple definitions of model "bc857b" Type: BJT
Warning: Multiple definitions of model "bc847c" Type: BJT
Warning: Multiple definitions of model "bc847b" Type: BJT
Error on line 17 : c2 n001 n012 0.1 uf
	 Unknown parameter "uf"
Error on line 18 : c3 n002 n012 0.1 uf
	 Unknown parameter "uf"
Error on line 19 : c4 n003 n012 0.1 uf
	 Unknown parameter "uf"
Error on line 20 : c5 n004 n012 0.1 uf
	 Unknown parameter "uf"
Error on line 21 : c6 n005 n012 0.1 uf
	 Unknown parameter "uf"
Error on line 22 : c7 n006 n012 0.1 uf
	 Unknown parameter "uf"
Error on line 23 : c8 n007 n012 0.1 uf
	 Unknown parameter "uf"
Error on line 24 : c9 n008 n012 0.1 uf
	 Unknown parameter "uf"
Error on line 25 : c10 n009 n012 0.1 uf
	 Unknown parameter "uf"
Error on line 26 : c11 n010 n012 0.1 uf
	 Unknown parameter "uf"
Error on line 28 : c13 n014 n013 68 pf
	 Unknown parameter "pf"
Error on line 38 : c18 n018 0 1 nf
	 Unknown parameter "nf"
WARNING: Node N012 is floating.

.OP point found by inspection.

Date: Wed Jun 14 20:21:15 2023
Total elapsed time: 0.349 seconds.

tnom = 27
temp = 27
method = trap
totiter = 40001
traniter = 0
tranpoints = 0
accept = 0
rejected = 0
matrix size = 45
fillins = 30
solver = Normal
Avg thread counts: 1.0/0.0/1.0/1.0
Matrix Compiler1: 5.18 KB object code size  0.7/0.7/[0.4]
Matrix Compiler2: off  [0.3]/0.5/0.3

