Circuit: * C:\Users\msaya\Documents\Github\Amplifier\Push pull.asc

Limiting rise time of source v2 to 5e-08
Limiting fall time of source v2 to 5e-08
Direct Newton iteration for .op point succeeded.

Date: Fri Jun 23 14:47:52 2023
Total elapsed time: 0.085 seconds.

tnom = 27
temp = 27
method = modified trap
totiter = 3732
traniter = 3702
tranpoints = 1454
accept = 1353
rejected = 101
matrix size = 13
fillins = 2
solver = Normal
Avg thread counts: 1.2/1.4/1.4/1.2
Matrix Compiler1: 1.04 KB object code size  0.3/0.4/[0.2]
Matrix Compiler2: 1.08 KB object code size  0.3/0.4/[0.3]

