Circuit: * C:\Users\msaya\Documents\Github\Amplifier\Switch.asc

Warning: Multiple definitions of model "2scr375p" Type: BJT
Warning: Multiple definitions of model "bc857b" Type: BJT
Warning: Multiple definitions of model "bc847c" Type: BJT
Warning: Multiple definitions of model "bc847b" Type: BJT
Limiting rise time of source v2 to 1e-08
Limiting fall time of source v2 to 1e-08
Direct Newton iteration for .op point succeeded.
Heightened Def Con from 8.32881e-07 to 8.36787e-07

Date: Tue Jun 20 19:59:01 2023
Total elapsed time: 0.132 seconds.

tnom = 27
temp = 27
method = modified trap
totiter = 3649
traniter = 3623
tranpoints = 1406
accept = 1279
rejected = 128
matrix size = 48
fillins = 28
solver = Normal
Avg thread counts: 1.2/1.5/1.5/1.2
Matrix Compiler1: 4.66 KB object code size  1.2/1.1/[0.5]
Matrix Compiler2: 4.42 KB object code size  0.8/0.9/[0.6]

