Circuit: * C:\Users\msaya\Documents\Github\Amplifier\Switch.asc

Warning: Multiple definitions of model "2scr375p" Type: BJT
Warning: Multiple definitions of model "bc857b" Type: BJT
Warning: Multiple definitions of model "bc847c" Type: BJT
Warning: Multiple definitions of model "bc847b" Type: BJT
Limiting rise time of source v2 to 5e-08
Limiting fall time of source v2 to 5e-08
Direct Newton iteration for .op point succeeded.

Date: Wed Jun 21 10:34:02 2023
Total elapsed time: 0.136 seconds.

tnom = 27
temp = 27
method = modified trap
totiter = 5505
traniter = 5476
tranpoints = 2132
accept = 1772
rejected = 360
matrix size = 48
fillins = 28
solver = Normal
Avg thread counts: 1.1/1.3/1.3/1.1
Matrix Compiler1: 4.54 KB object code size  1.2/0.8/[0.4]
Matrix Compiler2: 4.48 KB object code size  0.5/0.8/[0.6]

