Circuit: * C:\Users\msaya\Documents\Github\Amplifier\Switch.asc

Warning: Multiple definitions of model "2scr375p" Type: BJT
Warning: Multiple definitions of model "bc857b" Type: BJT
Warning: Multiple definitions of model "bc847c" Type: BJT
Warning: Multiple definitions of model "bc847b" Type: BJT
Limiting rise time of source v2 to 1e-08
Limiting fall time of source v2 to 1e-08
Direct Newton iteration for .op point succeeded.
Heightened Def Con from 8.47075e-07 to 8.50005e-07

Date: Tue Jun 20 22:00:50 2023
Total elapsed time: 0.145 seconds.

tnom = 27
temp = 27
method = modified trap
totiter = 3520
traniter = 3488
tranpoints = 1407
accept = 1285
rejected = 123
matrix size = 48
fillins = 28
solver = Normal
Avg thread counts: 1.2/3.2/1.4/1.2
Matrix Compiler1: 4.54 KB object code size  1.3/1.0/[0.7]
Matrix Compiler2: 4.48 KB object code size  0.7/0.9/[0.5]

