Circuit: * C:\Users\msaya\Documents\Github\Amplifier\push pull\Push pull.asc

Warning: Multiple definitions of model "2scr375p" Type: BJT
Warning: Multiple definitions of model "bc857b" Type: BJT
Warning: Multiple definitions of model "bc847c" Type: BJT
Warning: Multiple definitions of model "bc847b" Type: BJT
Limiting rise time of source v2 to 5e-08
Limiting fall time of source v2 to 5e-08
Direct Newton iteration for .op point succeeded.

Date: Sat Jun 24 13:42:57 2023
Total elapsed time: 0.068 seconds.

tnom = 27
temp = 27
method = modified trap
totiter = 3360
traniter = 3328
tranpoints = 1305
accept = 1225
rejected = 80
matrix size = 29
fillins = 31
solver = Normal
Avg thread counts: 1.2/1.5/1.4/1.2
Matrix Compiler1: 4.04 KB object code size  0.6/0.5/[0.3]
Matrix Compiler2: off  [0.3]/0.4/0.3

