Circuit: * C:\Users\msaya\Documents\Github\Amplifier\push pull\Push pull.asc

v1: both pins shorted together -- ignoring.
Limiting rise time of source v2 to 5e-08
Limiting fall time of source v2 to 5e-08
.OP point found by inspection.

Date: Fri Jun 23 15:11:10 2023
Total elapsed time: 0.087 seconds.

tnom = 27
temp = 27
method = modified trap
totiter = 3700
traniter = 3700
tranpoints = 1729
accept = 1551
rejected = 178
matrix size = 11
fillins = 2
solver = Normal
Avg thread counts: 1.2/1.4/1.4/1.2
Matrix Compiler1: 924 bytes object code size  0.3/0.2/[0.2]
Matrix Compiler2: off  [0.1]/0.2/0.1

