Circuit: * C:\Users\msaya\Documents\Github\Amplifier\push pull\Push pull.asc

Limiting rise time of source v2 to 5e-08
Limiting fall time of source v2 to 5e-08
Direct Newton iteration for .op point succeeded.

Date: Fri Jun 23 21:57:31 2023
Total elapsed time: 0.068 seconds.

tnom = 27
temp = 27
method = modified trap
totiter = 3875
traniter = 3845
tranpoints = 1514
accept = 1401
rejected = 113
matrix size = 13
fillins = 2
solver = Normal
Avg thread counts: 1.2/1.4/1.4/1.2
Matrix Compiler1: 1.04 KB object code size  0.4/0.3/[0.2]
Matrix Compiler2: off  [0.2]/0.2/0.2

