Circuit: * C:\Users\msaya\Desktop\LTSpice\Simulations\OVK\Schaltung\Schaltung.asc

Warning: Multiple definitions of model "2scr375p" Type: BJT
Warning: Multiple definitions of model "bc857b" Type: BJT
Warning: Multiple definitions of model "bc847c" Type: BJT
Warning: Multiple definitions of model "bc847b" Type: BJT
r14: both pins shorted together -- ignoring.
r17: both pins shorted together -- ignoring.
Error on line 113 : l1 n001 n003 l
	 Unknown parameter "l"
Error on line 114 : l2 n003 n002 l
	 Unknown parameter "l"
Fatal Error: Missing inductance value for "l1"
