Circuit: * C:\Users\msaya\Documents\Github\Amplifier\Switch\Switch.asc

Warning: Multiple definitions of model "2scr375p" Type: BJT
Warning: Multiple definitions of model "bc857b" Type: BJT
Warning: Multiple definitions of model "bc847c" Type: BJT
Warning: Multiple definitions of model "bc847b" Type: BJT
Limiting rise time of source v2 to 5e-08
Limiting fall time of source v2 to 5e-08
Direct Newton iteration for .op point succeeded.

Date: Mon Jul 31 20:43:52 2023
Total elapsed time: 0.096 seconds.

tnom = 27
temp = 27
method = modified trap
totiter = 4903
traniter = 4879
tranpoints = 1845
accept = 1585
rejected = 260
matrix size = 43
fillins = 18
solver = Normal
Avg thread counts: 1.1/1.4/1.3/1.1
Matrix Compiler1: 3.82 KB object code size  0.6/0.4/[0.4]
Matrix Compiler2: off  [0.2]/0.3/0.4

