Circuit: * C:\Users\msaya\Documents\Github\Amplifier\Switch\Switch.asc

Warning: Multiple definitions of model "2scr375p" Type: BJT
Warning: Multiple definitions of model "bc857b" Type: BJT
Warning: Multiple definitions of model "bc847c" Type: BJT
Warning: Multiple definitions of model "bc847b" Type: BJT
Limiting rise time of source v2 to 5e-08
Limiting fall time of source v2 to 5e-08
Direct Newton iteration for .op point succeeded.

Date: Tue Oct 31 10:40:19 2023
Total elapsed time: 0.175 seconds.

tnom = 27
temp = 27
method = modified trap
totiter = 4772
traniter = 4755
tranpoints = 1825
accept = 1576
rejected = 249
matrix size = 43
fillins = 8
solver = Normal
Avg thread counts: 1.1/1.4/1.3/1.1
Matrix Compiler1: 2.88 KB object code size  0.9/0.8/[0.4]
Matrix Compiler2: 3.59 KB object code size  0.7/0.7/[0.5]

