Circuit: * C:\Users\msaya\Documents\Github\Amplifier\Switch\Switch.asc

Warning: Multiple definitions of model "2scr375p" Type: BJT
Warning: Multiple definitions of model "bc857b" Type: BJT
Warning: Multiple definitions of model "bc847c" Type: BJT
Warning: Multiple definitions of model "bc847b" Type: BJT
Limiting rise time of source v2 to 5e-08
Limiting fall time of source v2 to 5e-08
Direct Newton iteration for .op point succeeded.

Date: Sun Jun 25 17:16:51 2023
Total elapsed time: 0.120 seconds.

tnom = 27
temp = 27
method = modified trap
totiter = 5548
traniter = 5522
tranpoints = 2033
accept = 1703
rejected = 330
matrix size = 48
fillins = 42
solver = Normal
Avg thread counts: 1.1/3.1/1.3/1.1
Matrix Compiler1:     308 opcodes  0.8/[0.6]/1.4
Matrix Compiler2: 4.62 KB object code size  0.3/0.5/[0.3]

