Circuit: * C:\Users\msaya\Documents\Github\Amplifier\Switch\Switch.asc

Warning: Multiple definitions of model "2scr375p" Type: BJT
Warning: Multiple definitions of model "bc857b" Type: BJT
Warning: Multiple definitions of model "bc847c" Type: BJT
Warning: Multiple definitions of model "bc847b" Type: BJT
Limiting rise time of source v2 to 5e-08
Limiting fall time of source v2 to 5e-08
Direct Newton iteration for .op point succeeded.

Date: Tue Aug  1 12:30:55 2023
Total elapsed time: 0.137 seconds.

tnom = 27
temp = 27
method = modified trap
totiter = 4911
traniter = 4885
tranpoints = 1729
accept = 1509
rejected = 220
matrix size = 43
fillins = 18
solver = Normal
Avg thread counts: 1.1/1.4/1.3/1.1
Matrix Compiler1: 3.82 KB object code size  1.5/1.4/[0.3]
Matrix Compiler2: 3.74 KB object code size  0.7/0.7/[0.4]

