Circuit: * C:\Users\msaya\Documents\Github\Amplifier\Switch\Switch.asc

Warning: Multiple definitions of model "2scr375p" Type: BJT
Warning: Multiple definitions of model "bc857b" Type: BJT
Warning: Multiple definitions of model "bc847c" Type: BJT
Warning: Multiple definitions of model "bc847b" Type: BJT
Limiting rise time of source v2 to 5e-08
Limiting fall time of source v2 to 5e-08
Direct Newton iteration for .op point succeeded.

Date: Wed Jun 28 10:58:22 2023
Total elapsed time: 0.136 seconds.

tnom = 27
temp = 27
method = modified trap
totiter = 5621
traniter = 5598
tranpoints = 1960
accept = 1673
rejected = 287
matrix size = 43
fillins = 18
solver = Normal
Avg thread counts: 1.1/1.3/1.3/1.1
Matrix Compiler1: 3.82 KB object code size  1.1/0.7/[0.3]
Matrix Compiler2: off  [0.4]/0.7/0.5

