Circuit: * C:\Users\msaya\Documents\Github\Amplifier\Switch\Switch.asc

Warning: Multiple definitions of model "2scr375p" Type: BJT
Warning: Multiple definitions of model "bc857b" Type: BJT
Warning: Multiple definitions of model "bc847c" Type: BJT
Warning: Multiple definitions of model "bc847b" Type: BJT
Limiting rise time of source v2 to 5e-08
Limiting fall time of source v2 to 5e-08
Direct Newton iteration for .op point succeeded.

Date: Wed Jun 28 09:16:51 2023
Total elapsed time: 0.233 seconds.

tnom = 27
temp = 27
method = modified trap
totiter = 5851
traniter = 5825
tranpoints = 2129
accept = 1778
rejected = 351
matrix size = 48
fillins = 42
solver = Normal
Avg thread counts: 1.1/1.3/1.3/1.1
Matrix Compiler1: 5.55 KB object code size  1.2/0.8/[0.5]
Matrix Compiler2: 4.62 KB object code size  0.5/0.8/[0.5]

