Circuit: * C:\Users\msaya\Documents\Github\Amplifier\Switch\Test.asc

Warning: Multiple definitions of model "2scr375p" Type: BJT
Warning: Multiple definitions of model "bc857b" Type: BJT
Warning: Multiple definitions of model "bc847c" Type: BJT
Warning: Multiple definitions of model "bc847b" Type: BJT
Limiting rise time of source v2 to 5e-08
Limiting fall time of source v2 to 5e-08
WARNING: Node NC_01 is floating.
WARNING: Node NC_02 is floating.

WARNING: Less than two connections to node nc_01.  This node is used by c13.
WARNING: Less than two connections to node nc_02.  This node is used by c13.
Direct Newton iteration for .op point succeeded.

Date: Wed Jun 28 09:00:19 2023
Total elapsed time: 0.172 seconds.

tnom = 27
temp = 27
method = modified trap
totiter = 5230
traniter = 5204
tranpoints = 1954
accept = 1666
rejected = 288
matrix size = 50
fillins = 42
solver = Normal
Avg thread counts: 1.1/3.1/1.3/1.1
Matrix Compiler1: 5.62 KB object code size  1.1/1.0/[0.8]
Matrix Compiler2: off  [0.5]/0.7/0.6

