Circuit: * C:\Users\msaya\Documents\Github\Amplifier\Switch\Test.asc

Warning: Multiple definitions of model "2scr375p" Type: BJT
Warning: Multiple definitions of model "bc857b" Type: BJT
Warning: Multiple definitions of model "bc847c" Type: BJT
Warning: Multiple definitions of model "bc847b" Type: BJT
Limiting rise time of source v2 to 5e-08
Limiting fall time of source v2 to 5e-08
Direct Newton iteration for .op point succeeded.

Date: Sun Jun 25 19:35:38 2023
Total elapsed time: 0.101 seconds.

tnom = 27
temp = 27
method = modified trap
totiter = 6570
traniter = 6544
tranpoints = 2224
accept = 1858
rejected = 366
matrix size = 48
fillins = 42
solver = Normal
Avg thread counts: 1.1/1.3/1.2/1.1
Matrix Compiler1: 5.55 KB object code size  0.8/0.5/[0.5]
Matrix Compiler2: 4.62 KB object code size  0.3/0.5/[0.3]

