Circuit: * C:\Users\msaya\Documents\Github\Amplifier\Switch\Test.asc

Warning: Multiple definitions of model "2scr375p" Type: BJT
Warning: Multiple definitions of model "bc857b" Type: BJT
Warning: Multiple definitions of model "bc847c" Type: BJT
Warning: Multiple definitions of model "bc847b" Type: BJT
Limiting rise time of source v2 to 5e-08
Limiting fall time of source v2 to 5e-08
Direct Newton iteration for .op point succeeded.

Date: Sat Jun 24 12:12:21 2023
Total elapsed time: 0.099 seconds.

tnom = 27
temp = 27
method = modified trap
totiter = 6835
traniter = 6809
tranpoints = 2207
accept = 1823
rejected = 384
matrix size = 48
fillins = 48
solver = Normal
Avg thread counts: 1.1/1.3/1.2/1.1
Matrix Compiler1: 6.04 KB object code size  1.2/0.6/[0.6]
Matrix Compiler2: 4.72 KB object code size  0.4/0.5/[0.3]

