Circuit: * C:\Users\msaya\Documents\Github\Amplifier\Switch\Test.asc

Warning: Multiple definitions of model "2scr375p" Type: BJT
Warning: Multiple definitions of model "bc857b" Type: BJT
Warning: Multiple definitions of model "bc847c" Type: BJT
Warning: Multiple definitions of model "bc847b" Type: BJT
Limiting rise time of source v2 to 5e-08
Limiting fall time of source v2 to 5e-08
Direct Newton iteration for .op point succeeded.

Date: Tue Jun 27 18:16:07 2023
Total elapsed time: 0.089 seconds.

tnom = 27
temp = 27
method = modified trap
totiter = 4619
traniter = 4601
tranpoints = 1754
accept = 1545
rejected = 209
matrix size = 39
fillins = 18
solver = Normal
Avg thread counts: 1.1/1.4/1.3/1.1
Matrix Compiler1: 3.37 KB object code size  0.5/0.5/[0.4]
Matrix Compiler2: off  [0.2]/0.4/0.3

