Circuit: * C:\Users\msaya\Desktop\LTSpice\Simulations\OVK\OV\OV.asc

Warning: Multiple definitions of model "2scr375p" Type: BJT
Warning: Multiple definitions of model "bc857b" Type: BJT
Warning: Multiple definitions of model "bc847c" Type: BJT
Warning: Multiple definitions of model "bc847b" Type: BJT
r14: both pins shorted together -- ignoring.
r17: both pins shorted together -- ignoring.
WARNING: Less than two connections to node vd.  This node is used by v5.
WARNING: Less than two connections to node bias1.  This node is used by r15.
WARNING: Less than two connections to node bias2.  This node is used by r18.
Direct Newton iteration failed to find .op point.  (Use ".option noopiter" to skip.)
Starting Gmin stepping
Gmin = 10
Gmin = 1.07374
Gmin = 0.115292
Gmin = 0.0123794
Gmin = 0.00132923
Gmin = 0.000142725
vernier = 0.5
Gmin = 4.05515e-05
vernier = 0.666667
vernier = 0.888888
Gmin = 7.20652e-06
vernier = 1
vernier = 0.5
vernier = 0.25
vernier = 0.125
vernier = 0.0625
Gmin = 2.46999e-06
vernier = 0.03125
vernier = 0.015625
vernier = 0.0078125
vernier = 0.00390625
vernier = 0.00195312
vernier = 0.000976562
Gmin = 2.46758e-06
vernier = 0.00130208
vernier = 0.00173611
Gmin = 2.45896e-06
vernier = 0.00231481
vernier = 0.00308642
Gmin = 2.44537e-06
vernier = 0.00411522
Gmin = 2.42346e-06
vernier = 0.00548696
vernier = 0.00731595
Gmin = 2.38801e-06
vernier = 0.00975459
vernier = 0.0130061
Gmin = 2.33292e-06
vernier = 0.0173415
Gmin = 2.24624e-06
vernier = 0.023122
vernier = 0.0308293
Gmin = 2.11132e-06
vernier = 0.0411057
vernier = 0.0548076
Gmin = 1.91426e-06
vernier = 0.0730768
Gmin = 1.63356e-06
vernier = 0.0974357
vernier = 0.129914
Gmin = 1.26159e-06
vernier = 0.173219
vernier = 0.230959
Gmin = 8.40288e-07
vernier = 0.307945
Gmin = 4.3801e-07
vernier = 0.410593
vernier = 0.547457
Gmin = 1.54002e-07
vernier = 0.729942
vernier = 0.973256
Gmin = 3.0835e-08
vernier = 1
Gmin = 3.40087e-09
Gmin = 3.65166e-10
Gmin = 3.92094e-11
Gmin = 4.21008e-12
Gmin = 4.52053e-13
Gmin = 0
Gmin stepping succeeded in finding the operating point.


Date: Wed Jan 10 14:10:37 2024
Total elapsed time: 0.257 seconds.

tnom = 27
temp = 27
method = modified trap
totiter = 7403
traniter = 5453
tranpoints = 1849
accept = 1529
rejected = 320
matrix size = 84
fillins = 79
solver = Normal
Avg thread counts: 1.1/1.4/1.3/1.1
Matrix Compiler1: 14.05 KB object code size  2.2/1.5/[1.0]
Matrix Compiler2: 9.36 KB object code size  0.6/0.8/[0.4]

