Circuit: * C:\Users\msaya\Desktop\LTSpice\Simulations\OVK\OV\OV.asc

Warning: Multiple definitions of model "2scr375p" Type: BJT
Warning: Multiple definitions of model "bc857b" Type: BJT
Warning: Multiple definitions of model "bc847c" Type: BJT
Warning: Multiple definitions of model "bc847b" Type: BJT
r14: both pins shorted together -- ignoring.
r17: both pins shorted together -- ignoring.
WARNING: Node N007 is floating.
WARNING: Node N008 is floating.

WARNING: Less than two connections to node vd.  This node is used by v5.
WARNING: Less than two connections to node bias1.  This node is used by r15.
WARNING: Less than two connections to node bias2.  This node is used by r18.
Direct Newton iteration failed to find .op point.  (Use ".option noopiter" to skip.)
Starting Gmin stepping
Gmin = 10
Gmin = 1.07374
Gmin = 0.115292
Gmin = 0.0123794
Gmin = 0.00132923
Gmin = 0.000142725
vernier = 0.5
vernier = 0.666667
Gmin = 4.3448e-05
vernier = 0.888888
Gmin = 7.3703e-06
vernier = 1
Gmin = 8.09366e-07
Gmin = 8.6905e-08
Gmin = 9.33136e-09
Gmin = 1.00195e-09
Gmin = 1.07583e-10
Gmin = 1.15517e-11
Gmin = 1.24035e-12
Gmin = 1.33182e-13
Gmin = 0
Gmin stepping succeeded in finding the operating point.


Date: Mon Jan 22 20:02:49 2024
Total elapsed time: 0.282 seconds.

tnom = 27
temp = 27
method = modified trap
totiter = 10162
traniter = 9509
tranpoints = 3310
accept = 2440
rejected = 870
matrix size = 104
fillins = 68
solver = Normal
Avg thread counts: 1.1/1.2/1.2/1.1
Matrix Compiler1: 13.84 KB object code size  2.4/0.9/[0.7]
Matrix Compiler2: 10.78 KB object code size  0.8/1.1/[0.5]

