Circuit: * C:\Users\msaya\Desktop\LTSpice\Simulations\OVK\GT\GT.asc

r14: both pins shorted together -- ignoring.
r17: both pins shorted together -- ignoring.
WARNING: Less than two connections to node vd.  This node is used by v5.
WARNING: Less than two connections to node bias1.  This node is used by r15.
WARNING: Less than two connections to node bias2.  This node is used by r18.
Direct Newton iteration for .op point succeeded.

Date: Wed Jan 10 21:59:00 2024
Total elapsed time: 0.078 seconds.

tnom = 27
temp = 27
method = modified trap
totiter = 2501
traniter = 2495
tranpoints = 1117
accept = 1082
rejected = 35
matrix size = 123
fillins = 163
solver = Normal
Avg thread counts: 1.3/1.6/1.6/1.3
Matrix Compiler1: 16.83 KB object code size  2.6/2.1/[1.3]
Matrix Compiler2: 13.21 KB object code size  1.0/1.3/[0.7]

