Circuit: * C:\Users\msaya\Desktop\LTSpice\Simulations\OVK\GT\GT.asc

r14: both pins shorted together -- ignoring.
r17: both pins shorted together -- ignoring.
WARNING: Less than two connections to node vd.  This node is used by v5.
WARNING: Less than two connections to node bias1.  This node is used by r15.
WARNING: Less than two connections to node bias2.  This node is used by r18.
Direct Newton iteration failed to find .op point.  (Use ".option noopiter" to skip.)
Starting Gmin stepping
Gmin = 10
Gmin = 1.07374
Gmin = 0.115292
Gmin = 0.0123794
Gmin = 0.00132923
Gmin = 0.000142725
vernier = 0.5
vernier = 0.25
vernier = 0.125
vernier = 0.0625
vernier = 0.03125
vernier = 0.015625
Gmin = 7.30751e-05
vernier = 0.0078125
vernier = 0.00390625
vernier = 0.00195312
vernier = 0.000976562
vernier = 0.000488281
Gmin = 0
Gmin stepping failed

Starting source stepping with srcstepmethod=0
Source Step = 3.0303%
Source Step = 33.3333%
Source Step = 63.6364%
Source Step = 93.9394%
Source stepping succeeded in finding the operating point.


Date: Wed Jan 10 13:42:05 2024
Total elapsed time: 0.125 seconds.

tnom = 27
temp = 27
method = modified trap
totiter = 5377
traniter = 3151
tranpoints = 1369
accept = 1236
rejected = 133
matrix size = 37
fillins = 10
solver = Normal
Avg thread counts: 1.2/1.5/1.5/1.2
Matrix Compiler1: 3.38 KB object code size  0.6/0.4/[0.3]
Matrix Compiler2: off  [0.2]/0.3/0.3

