Circuit: * C:\Users\msaya\Documents\Github\Amplifier\pulse Amplifier\pulse Amplifier.asc

Warning: Multiple definitions of model "2scr375p" Type: BJT
Warning: Multiple definitions of model "bc857b" Type: BJT
Warning: Multiple definitions of model "bc847c" Type: BJT
Warning: Multiple definitions of model "bc847b" Type: BJT
Limiting rise time of source v2 to 1e-07
Limiting fall time of source v2 to 1e-07
Direct Newton iteration failed to find .op point.  (Use ".option noopiter" to skip.)
Starting Gmin stepping
Gmin = 10
Gmin = 1.07374
Gmin = 0.115292
Gmin = 0.0123794
Gmin = 0.00132923
Gmin = 0.000142725
Gmin = 1.5325e-05
Gmin = 1.6455e-06
Gmin = 1.76685e-07
Gmin = 1.89714e-08
Gmin = 2.03704e-09
Gmin = 2.18725e-10
Gmin = 2.34854e-11
Gmin = 2.52173e-12
Gmin = 2.70769e-13
Gmin = 0
Gmin stepping succeeded in finding the operating point.


Date: Tue Nov  7 11:57:41 2023
Total elapsed time: 0.136 seconds.

tnom = 27
temp = 27
method = modified trap
totiter = 3798
traniter = 3203
tranpoints = 1464
accept = 1351
rejected = 113
matrix size = 33
fillins = 17
solver = Normal
Avg thread counts: 1.2/1.4/1.4/1.2
Matrix Compiler1: 3.07 KB object code size  0.8/0.5/[0.4]
Matrix Compiler2: off  [0.4]/0.5/0.4

